36

C 	 0.000000 	 0.000000 	 0.000000 	 0.000000 	 0.000000 	 0
C 	 0.000000 	 0.000000 	 1.000000 	 0.000000 	 0.000000 	 0
C 	 0.000000 	 0.000000 	 2.000000 	 0.000000 	 0.000000 	 0
C 	 0.000000 	 1.000000 	 0.000000 	 0.000000 	 0.000000 	 0
C 	 0.000000 	 1.000000 	 1.000000 	 0.000000 	 0.000000 	 0
C 	 0.000000 	 1.000000 	 2.000000 	 0.000000 	 0.000000 	 0
C 	 0.000000 	 2.000000 	 0.000000 	 0.000000 	 0.000000 	 0
C 	 0.000000 	 2.000000 	 1.000000 	 0.000000 	 0.000000 	 0
C 	 0.000000 	 2.000000 	 2.000000 	 0.000000 	 0.000000 	 0
C 	 0.000000 	 3.000000 	 0.000000 	 0.000000 	 0.000000 	 0
C 	 0.000000 	 3.000000 	 1.000000 	 0.000000 	 0.000000 	 0
C 	 0.000000 	 3.000000 	 2.000000 	 0.000000 	 0.000000 	 0
C 	 1.000000 	 0.000000 	 0.000000 	 0.000000 	 0.000000 	 0
C 	 1.000000 	 0.000000 	 1.000000 	 0.000000 	 0.000000 	 0
C 	 1.000000 	 0.000000 	 2.000000 	 0.000000 	 0.000000 	 0
C 	 1.000000 	 1.000000 	 0.000000 	 0.000000 	 0.000000 	 0
C 	 1.000000 	 1.000000 	 1.000000 	 0.000000 	 0.000000 	 0
C 	 1.000000 	 1.000000 	 2.000000 	 0.000000 	 0.000000 	 0
C 	 1.000000 	 2.000000 	 0.000000 	 0.000000 	 0.000000 	 0
C 	 1.000000 	 2.000000 	 1.000000 	 0.000000 	 0.000000 	 0
C 	 1.000000 	 2.000000 	 2.000000 	 0.000000 	 0.000000 	 0
C 	 1.000000 	 3.000000 	 0.000000 	 0.000000 	 0.000000 	 0
C 	 1.000000 	 3.000000 	 1.000000 	 0.000000 	 0.000000 	 0
C 	 1.000000 	 3.000000 	 2.000000 	 0.000000 	 0.000000 	 0
C 	 2.000000 	 0.000000 	 0.000000 	 0.000000 	 0.000000 	 0
C 	 2.000000 	 0.000000 	 1.000000 	 0.000000 	 0.000000 	 0
C 	 2.000000 	 0.000000 	 2.000000 	 0.000000 	 0.000000 	 0
C 	 2.000000 	 1.000000 	 0.000000 	 0.000000 	 0.000000 	 0
C 	 2.000000 	 1.000000 	 1.000000 	 0.000000 	 0.000000 	 0
C 	 2.000000 	 1.000000 	 2.000000 	 0.000000 	 0.000000 	 0
C 	 2.000000 	 2.000000 	 0.000000 	 0.000000 	 0.000000 	 0
C 	 2.000000 	 2.000000 	 1.000000 	 0.000000 	 0.000000 	 0
C 	 2.000000 	 2.000000 	 2.000000 	 0.000000 	 0.000000 	 0
C 	 2.000000 	 3.000000 	 0.000000 	 0.000000 	 0.000000 	 0
C 	 2.000000 	 3.000000 	 1.000000 	 0.000000 	 0.000000 	 0
C 	 2.000000 	 3.000000 	 2.000000 	 0.000000 	 0.000000 	 0
